/*--------------------------------*- C++ -*----------------------------------*\
| =========                 |                                                 |
| \\      /  F ield         | OpenFOAM: The Open Source CFD Toolbox           |
|  \\    /   O peration     | Version:  5.x                                   |
|   \\  /    A nd           | Web:      www.OpenFOAM.org                      |
|    \\/     M anipulation  |                                                 |
\*---------------------------------------------------------------------------*/
FoamFile
{
    version     2.0;
    format      ascii;
    class       polyBoundaryMesh;
    object      boundary;
}
// * * * * * * * * * * * * * * * * * * * * * * * * * * * * * * * * * * * * * //

5
(
    farfield
    {
        type            patch;
        nFaces          100;
        startFace       167561;
    }
    wall_slat
    {
        type            wall;
        inGroups        1(wall);
        nFaces          210;
        startFace       167661;
    }
    wall_airfoil
    {
        type            wall;
        inGroups        1(wall);
        nFaces          510;
        startFace       167871;
    }
    wall_flap
    {
        type            wall;
        inGroups        1(wall);
        nFaces          290;
        startFace       168381;
    }
    frontAndBackPlanes
    {
        type            empty;
        inGroups        1(empty);
        nFaces          200588;
        startFace       168671;
    }
)

// ************************************************************************* //
