/*--------------------------------*- C++ -*----------------------------------*\
| =========                 |                                                 |
| \\      /  F ield         | OpenFOAM: The Open Source CFD Toolbox           |
|  \\    /   O peration     | Version:  5.x                                   |
|   \\  /    A nd           | Web:      www.OpenFOAM.org                      |
|    \\/     M anipulation  |                                                 |
\*---------------------------------------------------------------------------*/
FoamFile
{
    version     2.0;
    format      ascii;
    class       dictionary;
    object      fvSchemes;
}
// * * * * * * * * * * * * * * * * * * * * * * * * * * * * * * * * * * * * * //

ddtSchemes
{
    default         steadyState;
}

gradSchemes
{
    //default         Gauss linear;
    //grad(p)         Gauss linear;

    //default 	     leastSquares;

    default 	     cellLimited Gauss linear 1;
    grad(U) 	     cellLimited Gauss linear 1;

//If you do not limit k and omega it is likely that it will diverge
    grad(k)	     cellLimited Gauss linear 1;
    grad(omega)	     cellLimited Gauss linear 1;
}

divSchemes
{
    default         none;

    //div(phi,U)      bounded Gauss linear;
    //div(phi,U)      bounded Gauss limitedLinearV 1;
    //div(phi,U)      bounded Gauss upwind;

    div(phi,U)      bounded Gauss linearUpwindV grad(U);

    div((nuEff*dev2(T(grad(U))))) Gauss linear;

    div(phi,k)		bounded Gauss upwind;	//linearUpwind default;
    div(phi,omega)	bounded Gauss upwind;	//linearUpwind default;

    div(phi,nuTilda)	bounded Gauss linearUpwind default;
}

laplacianSchemes
{
     default         Gauss linear limited 1;
}

interpolationSchemes
{
    default         linear;
}

snGradSchemes
{
    default         limited 1;
}

wallDist
{
    method meshWave;
}

// ************************************************************************* //
