/*--------------------------------*- C++ -*----------------------------------*\
| =========                 |                                                 |
| \\      /  F ield         | OpenFOAM: The Open Source CFD Toolbox           |
|  \\    /   O peration     | Version:  5.x                                   |
|   \\  /    A nd           | Web:      www.OpenFOAM.org                      |
|    \\/     M anipulation  |                                                 |
\*---------------------------------------------------------------------------*/
FoamFile
{
    version     2.0;
    format      ascii;
    class       dictionary;
    object      fvSolution;
}
// * * * * * * * * * * * * * * * * * * * * * * * * * * * * * * * * * * * * * //

solvers
{

    p
    {
        solver          PCG;
        preconditioner  DIC;
        tolerance       1e-06;
        relTol          0.01;

	minIter 	2;
    }

/*
    p
    {
        solver           GAMG;
        tolerance        1e-6;
        relTol           0.01;
        smoother         GaussSeidel;
        nPreSweeps       0;
        nPostSweeps      2;
        cacheAgglomeration on;
        agglomerator     faceAreaPair;
        nCellsInCoarsestLevel 100;
        mergeLevels      1;

	minIter         3;
    }
*/

    pFinal
    {
        $p;
        relTol          0;
    }

    U
    {
        solver          PBiCGStab;
        preconditioner  DILU;
        tolerance       1e-08;
        relTol          0.001;
    }

    "(omega|k|nuTilda)"
    {
        solver          PBiCGStab;
        preconditioner  DILU;
        tolerance       1e-08;
        relTol          0.001;
    }

    Phi
    {
        $p;
    }

}

potentialFlow
{
    nNonOrthogonalCorrectors 10;
}

SIMPLE
{
    nNonOrthogonalCorrectors 3;
    pRefCell        0;
    pRefValue       0;

    consistent yes;

/*
    residualControl
    {
        p               1e-4;
        U               1e-4;
        nuTilda         1e-4;
        k               1e-4;
        omega           1e-4;
    }
*/
}

relaxationFactors
{
/*
    fields
    {
        p               0.3;
    }
    equations
    {
        U               0.7;
        k               0.7;
        omega           0.7;
	nuTilda		0.7;
    }
*/

    //Relaxation factor tuned for simplec

    equations
    {
	p		0.9;	//0.9
        U               0.9;	//0.9
        k               0.7;
        omega           0.7;
        nuTilda         0.7;
    }

}

// ************************************************************************* //
