/*--------------------------------*- C++ -*----------------------------------*\
| =========                 |                                                 |
| \\      /  F ield         | OpenFOAM: The Open Source CFD Toolbox           |
|  \\    /   O peration     | Version:  5.x                                   |
|   \\  /    A nd           | Web:      www.OpenFOAM.org                      |
|    \\/     M anipulation  |                                                 |
\*---------------------------------------------------------------------------*/
FoamFile
{
    version     2.0;
    format      ascii;
    class       volScalarField;
    object      k;
}
// * * * * * * * * * * * * * * * * * * * * * * * * * * * * * * * * * * * * * //

dimensions      [ 0 2 -2 0 0 0 0 ];

//high k (1) convergence to wrong solution
internalField   uniform 0.00015;

boundaryField
{
    frontAndBackPlanes
    {
        type            empty;
    }

    "(wall.*)"
    {
        type            kqRWallFunction;
        value           uniform 0;
    }

    farfield
    {

        type            freestream;
        freestreamValue $internalField;
        value           $internalField;
    }
}

// ************************************************************************* //
