/*--------------------------------*- C++ -*----------------------------------*\
| =========                 |                                                 |
| \\      /  F ield         | OpenFOAM: The Open Source CFD Toolbox           |
|  \\    /   O peration     | Version:  5.x                                   |
|   \\  /    A nd           | Web:      www.OpenFOAM.org                      |
|    \\/     M anipulation  |                                                 |
\*---------------------------------------------------------------------------*/
FoamFile
{
    version     2.0;
    format      ascii;
    class       volVectorField;
    object      U;
}
// * * * * * * * * * * * * * * * * * * * * * * * * * * * * * * * * * * * * * //

dimensions      [0 1 -1 0 0 0 0];

internalField   uniform (1 0 0);

boundaryField
{
    farfield
    {
        type            freestream;
        freestreamValue uniform (0.9953961984 0.09584575252 0);
        value           uniform (0.9953961984 0.09584575252 0);
    }
    wall_slat
    {
        type            fixedValue;
        value           uniform (0 0 0);
    }
    wall_airfoil
    {
        type            fixedValue;
        value           uniform (0 0 0);
    }
    wall_flap
    {
        type            fixedValue;
        value           uniform (0 0 0);
    }
    frontAndBackPlanes
    {
        type            empty;
    }
}

// ************************************************************************* //
