/*--------------------------------*- C++ -*----------------------------------*\
| =========                 |                                                 |
| \\      /  F ield         | OpenFOAM: The Open Source CFD Toolbox           |
|  \\    /   O peration     | Version:  5.x                                   |
|   \\  /    A nd           | Web:      www.OpenFOAM.org                      |
|    \\/     M anipulation  |                                                 |
\*---------------------------------------------------------------------------*/
FoamFile
{
    version     2.0;
    format      ascii;
    class       volScalarField;
    object      nuTilda;
}
// * * * * * * * * * * * * * * * * * * * * * * * * * * * * * * * * * * * * * //

dimensions      [0 2 -1 0 0 0 0];

internalField   uniform 2e-06;

boundaryField
{
    farfield
    {
        type            freestream;
        freestreamValue uniform 2e-06;
        value           uniform 2e-06;
    }
    frontAndBackPlanes
    {
        type            empty;
    }
    "(wall.*)"
    {
        type            fixedValue;
        value           uniform 0;
    }
}

// ************************************************************************* //
